CLEANING REPORT — 2026-02-18 21:05:26
----------------------------------------
Input file: input/sample_dirty_data.csv
Output file: output/cleaned.csv

Mode: simple
Strictness: lenient

Rows loaded: 6
Junk rows removed: 2
Invalid emails removed: 0
Invalid dates removed: 0
Duplicates removed: 0

Final row count: 4