CLEANING REPORT — 2026-02-20 15:27:05
----------------------------------------
Input file: input/sample_dirty_data.csv
Output file: output/cleaned_strict.csv

Mode: simple
Strictness: strict

Rows loaded: 6
Junk rows removed: 2
Invalid emails removed: 2
Invalid dates removed: 0
Duplicates removed: 0

Final row count: 2