CLEANING REPORT — 2026-02-21 17:54:08
----------------------------------------
Input file: input/sample_dirty_data.csv
Output file: output/cleaned_sample.csv

Mode: audit
Strictness: strict

Rows loaded: 6
Junk rows removed: 2
Invalid emails removed: 2
Invalid dates removed: 0
Duplicates removed: 0

Final row count: 2